[TITLE]
C:\Mario\Violada

[JUNCTIONS]
;ID              	Elev        	Demand      	Pattern         
 700             	376         	0           	                	;
 701             	384         	0           	                	;
 702             	378         	0           	                	;
 715             	367         	0           	                	;
 716             	376         	0           	                	;
 717             	372         	0           	                	;
 800             	380         	0           	                	;
 801             	375         	0           	                	;
 807             	377         	0           	                	;
 851             	385         	0           	                	;
 904             	375         	0           	                	;
 907             	375         	0           	                	;
 908             	375         	0           	                	;
 911             	375         	0           	                	;
 912             	375         	0           	                	;
 913             	375         	0           	                	;
 914             	380         	0           	                	;
 915             	375         	0           	                	;
 916             	375         	0           	                	;
 919             	375         	0           	                	;
 921             	375         	0           	                	;
 923             	370         	0           	                	;
 925             	375         	0           	                	;
 926             	375         	0           	                	;
 927             	380         	0           	                	;
 928             	365         	0           	                	;
 929             	365         	0           	                	;
 930             	365         	0           	                	;
 931             	365         	0           	                	;
 933             	365         	0           	                	;
 934             	370         	0           	                	;
 935             	375         	0           	                	;
 938             	380         	0           	                	;
 939             	365         	0           	                	;
 940             	360         	0           	                	;
 941             	360         	0           	                	;
 942             	352         	0           	                	; 
 943             	375         	0           	                	;
 944             	384         	0           	                	;
 945             	380         	0           	                	;
 946             	373         	0           	                	;
 200             	375.98      	21.5        	                	;
 201             	376.02      	21.6        	                	;
 202             	381.49      	24          	                	;
 203             	375.37      	18          	                	;
 204             	374.14      	18          	                	;
 206             	376.07      	32          	                	;
 207             	374.70      	18          	                	;
 208             	374.13      	18          	                	;
 209             	373.71      	18          	                	;
 210             	372.79      	18          	                	;
 211             	374.20      	18          	                	;
 212             	376.27      	18          	                	;
 213             	382.90      	18          	                	;
 214             	384.02      	18          	                	;
 215             	384.73      	18          	                	;
 216             	374.16      	18          	                	;
 217             	372.72      	18          	                	;
 218             	372.42      	28          	                	;
 219             	372.24      	26          	                	;
 220             	377.28      	30          	                	;
 221             	381.51      	23.2        	                	;
 222             	377.93      	17.5        	                	;
 223             	371.36      	22          	                	;
 224             	384.12      	31.2        	                	;
 225             	383.79      	18          	                	;
 226             	371.48      	21.1        	                	;
 227             	377.60      	38.3        	                	;
 228             	377.87      	71.2        	                	;
 230             	366.41      	29          	                	;
 231             	374.42      	20          	                	;
 232             	374.44      	24          	                	;
 233             	381.50      	50          	                	;
 234             	363.93      	18.6        	                	;
 235             	371.16      	60          	                	;
 2352            	382.12      	93.2        	                	;
 236             	383.13      	100         	                	;
 238             	360.42      	18          	                	;
 239             	367.47      	20          	                	; 
 240             	364.38      	39          	                	;
 241             	373.24      	28          	                	;
 242             	356.95      	86          	                	;
 2422            	364.64      	35          	                	;
 243             	358.34      	19.8        	                	;
 244             	354.27      	22          	                	;
 245             	350.12      	18          	                	;
 246             	355.09      	18          	                	;
 247             	360.27      	33          	                	;
 248             	359.04      	29          	                	;
 249             	360.21      	26          	                	;
 250             	363.89      	25          	                	;
 251             	362.85      	39          	                	;
 252             	354.67      	20          	                	; 
 253             	360.90      	18          	                	;
 254             	371.12      	20          	                	;
 255             	372.57      	40          	                	;
 256             	366.21      	34.5        	                	;
 257             	371.70      	41.8        	                	;
 258             	367.07      	31.67       	                	;
 2592            	373.52      	30          	                	;
 259             	373.35      	32          	                	; 
 260             	371.46      	18          	                	;
 261             	367.23      	18          	                	;
 262             	374.22      	26.3        	                	;
 263             	375.93      	70          	                	;
 264             	374.75      	48.7        	                	;
 265             	374.95      	21.1        	                	;
 266             	369.04      	23.12       	                	;
 267             	369.16      	18          	                	;
 268             	370.44      	22.9        	                	;
 269             	373.32      	28          	                	;
 270             	385.21      	30.8        	                	;
 271             	382.06      	18          	                	;
 272             	382.73      	18          	                	;
 273             	382.16      	26          	                	;
 274             	374.37      	21          	                	;
 275             	383.45      	18          	                	;
 276             	382.09      	20          	                	;
 277             	380.26      	26          	                	;
 278             	379.53      	28          	                	;
 279             	377.46      	18          	                	;
 280             	381.01      	32          	                	;
 281             	369.27      	22          	                	;
 282             	371.11      	28.4        	                	;
 283             	375.27      	86          	                	;
 284             	378.11      	21          	                	;
 285             	380.83      	19.3        	                	;
 286             	381.83      	18          	                	;
 287             	379.91      	33.3        	                	;
 288             	371.60      	86.4        	                	;
 289             	372.11      	18          	                	;
 290             	373.88      	39.1        	                	;
 291             	373.70      	23          	                	;
 292             	375.79      	23          	                	;
 293             	379.95      	26.8        	                	;
 294             	379.11      	43          	                	;
 295             	372.78      	23          	                	;
 296             	381.16      	26          	                	;
 297             	379.05      	30.8        	                	;
 298             	377.84      	19.3        	                	;
 299             	375.75      	24          	                	;
 300             	374.20      	27          	                	;
 301             	381.96      	24          	                	;
 302             	382.66      	18          	                	;
 303             	373.06      	28          	                	;
 304             	373.89      	20          	                	;

[RESERVOIRS]
;ID              	Head        	Pattern         
 0               	0       	                	;

[PIPES]
;ID              	Node1           	Node2           	Length      	Diameter    	Roughness   	MinorLoss   	Status
 1               	220             	222             	70          	226         	0.01        	0           	Open  	;
 10              	243             	2422            	502         	362         	0.01        	0           	Open  	;
 100             	203             	800             	310         	226         	0.01        	0           	Open  	;
 102             	300             	200             	369         	285         	0.01        	0           	Open  	;
 103             	200             	301             	477         	226         	0.01        	0           	Open  	;
 104             	907             	298             	235         	285         	0.01        	0           	Open  	;
 105             	907             	299             	92          	226         	0.01        	0           	Open  	;
 106             	290             	287             	605         	226         	0.01        	0           	Open  	;
 107             	911             	210             	55          	452         	0.01        	0           	Open  	;
 11              	2422            	239             	146         	226         	0.01        	0           	Open  	;
 112             	219             	218             	218         	588         	0.01        	0           	Open  	;
 113             	915             	220             	464         	285         	0.01        	0           	Open  	;
 117             	223             	916             	207         	686         	0.01        	0           	Open  	;
 118             	915             	219             	259         	588         	0.01        	0           	Open  	;
 119             	916             	915             	18          	588         	0.01        	0           	Open  	;
 12              	239             	283             	339         	226         	0.01        	0           	Open  	;
 120             	912             	211             	449         	285         	0.01        	0           	Open  	;
 122             	914             	807             	45          	181         	0.01        	0           	Open  	;
 123             	904             	204             	24          	285         	0.01        	0           	Open  	;
 126             	216             	914             	107         	226         	0.01        	0           	Open  	;
 127             	211             	216             	42          	226         	0.01        	0           	Open  	;
 128             	218             	217             	306         	505         	0.01        	0           	Open  	;
 131             	912             	911             	5           	452         	0.01        	0           	Open  	;
 132             	217             	912             	80          	505         	0.01        	0           	Open  	;
 134             	290             	291             	30          	144         	0.01        	0           	Open  	;
 136             	908             	907             	265         	362         	0.01        	0           	Open  	;
 137             	299             	292             	20          	144         	0.01        	0           	Open  	;
 138             	908             	303             	184         	226         	0.01        	0           	Open  	;
 139             	716             	232             	10          	181         	0.01        	0           	Open  	;
 14              	940             	247             	294         	285         	0.01        	0           	Open  	;
 142             	294             	297             	12          	144         	0.01        	0           	Open  	;
 143             	716             	231             	12          	181         	0.01        	0           	Open  	;
 144             	301             	302             	265         	181         	0.01        	0           	Open  	;
 145             	300             	904             	266         	362         	0.01        	0           	Open  	;
 148             	209             	300             	148         	452         	0.01        	0           	Open  	;
 149             	210             	209             	325         	452         	0.01        	0           	Open  	;
 15              	243             	242             	383         	285         	0.01        	0           	Open  	;
 150             	204             	203             	593         	285         	0.01        	0           	Open  	;
 151             	203             	201             	215         	144         	0.01        	0           	Open  	;
 156             	944             	214             	25          	144         	0.01        	0           	Open  	;
 16              	247             	248             	60          	226         	0.01        	0           	Open  	;
 160             	279             	927             	185         	285         	0.01        	0           	Open  	;
 162             	927             	284             	33          	285         	0.01        	0           	Open  	;
 171             	280             	945             	216         	181         	0.01        	0           	Open  	;
 172             	285             	280             	16          	285         	0.01        	0           	Open  	;
 175             	807             	213             	232         	144         	0.01        	0           	Open  	;
 181             	227             	228             	10          	226         	0.01        	0           	Open  	;
 183             	807             	212             	12          	181         	0.01        	0           	Open  	;
 184             	801             	208             	10          	285         	0.01        	0           	Open  	;
 185             	904             	801             	184         	285         	0.01        	0           	Open  	;
 19              	716             	233             	131         	181         	0.01        	0           	Open  	;
 2               	919             	223             	281         	686         	0.01        	0           	Open  	;
 20              	234             	235             	503         	226         	0.01        	0           	Open  	;
 21              	250             	249             	276         	181         	0.01        	0           	Open  	;
 22              	930             	939             	315         	588         	0.01        	0           	Open  	;
 23              	248             	246             	292         	181         	0.01        	0           	Open  	;
 24              	931             	251             	445         	285         	0.01        	0           	Open  	;
 25              	251             	250             	243         	285         	0.01        	0           	Open  	;
 26              	940             	941             	34          	505         	0.01        	0           	Open  	;
 27              	249             	253             	15          	181         	0.01        	0           	Open  	;
 28              	268             	717             	165         	362         	0.01        	0           	Open  	;
 29              	256             	934             	500         	686         	0.01        	0           	Open  	;
 3               	926             	279             	251         	285         	0.01        	0           	Open  	;
 30              	929             	715             	10          	285         	0.01        	0           	Open  	;
 31              	923             	928             	594         	883         	0.01        	0           	Open  	;
 32              	939             	940             	675         	505         	0.01        	0           	Open  	;
 33              	931             	933             	145         	686         	0.01        	0           	Open  	;
 34              	929             	930             	483         	783         	0.01        	0           	Open  	;
 36              	289             	290             	447         	285         	0.01        	0           	Open  	;
 37              	236             	2352            	15          	226         	0.01        	0           	Open  	;
 38              	938             	851             	287         	452         	0.01        	0           	Open  	;
 4               	941             	238             	341         	452         	0.01        	0           	Open  	;
 40              	851             	275             	190         	181         	0.01        	0           	Open  	;
 41              	933             	256             	346         	686         	0.01        	0           	Open  	;
 42              	255             	254             	50          	144         	0.01        	0           	Open  	;
 43              	930             	931             	273         	686         	0.01        	0           	Open  	;
 44              	934             	946             	163         	226         	0.01        	0           	Open  	;
 45              	946             	257             	43          	181         	0.01        	0           	Open  	;
 46              	933             	255             	391         	226         	0.01        	0           	Open  	;
 47              	935             	700             	357         	588         	0.01        	0           	Open  	;
 48              	700             	264             	65          	588         	0.01        	0           	Open  	;
 5               	246             	244             	328         	144         	0.01        	0           	Open  	;
 50              	928             	258             	27          	181         	0.01        	0           	Open  	;
 51              	928             	929             	16          	783         	0.01        	0           	Open  	;
 52              	258             	261             	10          	144         	0.01        	0           	Open  	;
 53              	264             	701             	296         	505         	0.01        	0           	Open  	;
 54              	921             	226             	365         	1176        	0.01        	0           	Open  	;
 56              	715             	716             	770         	285         	0.01        	0           	Open  	;
 57              	921             	702             	266         	285         	0.01        	0           	Open  	;
 58              	702             	225             	316         	144         	0.01        	0           	Open  	;
 59              	702             	227             	241         	285         	0.01        	0           	Open  	;
 6               	941             	236             	1120        	452         	0.01        	0           	Open  	;
 60              	800             	202             	60          	226         	0.01        	0           	Open  	;
 61              	267             	268             	204         	362         	0.01        	0           	Open  	;
 62              	717             	269             	232         	362         	0.01        	0           	Open  	;
 63              	919             	923             	581         	883         	0.01        	0           	Open  	;
 64              	717             	282             	37          	144         	0.01        	0           	Open  	;
 65              	2592            	260             	30          	144         	0.01        	0           	Open  	;
 66              	923             	266             	15          	505         	0.01        	0           	Open  	;
 67              	269             	925             	193         	362         	0.01        	0           	Open  	;
 68              	945             	277             	36          	144         	0.01        	0           	Open  	;
 69              	266             	267             	163         	452         	0.01        	0           	Open  	;
 7               	939             	234             	144         	285         	0.01        	0           	Open  	;
 70              	927             	285             	360         	285         	0.01        	0           	Open  	;
 71              	287             	293             	30          	144         	0.01        	0           	Open  	;
 72              	287             	286             	470         	144         	0.01        	0           	Open  	;
 73              	919             	288             	30          	285         	0.01        	0           	Open  	;
 74              	226             	919             	8           	1176        	0.01        	0           	Open  	;
 76              	935             	259             	446         	362         	0.01        	0           	Open  	;
 77              	701             	271             	20          	452         	0.01        	0           	Open  	;
 78              	264             	263             	640         	285         	0.01        	0           	Open  	;
 79              	700             	274             	475         	144         	0.01        	0           	Open  	;
 8               	242             	942             	557         	144         	0.01        	0           	Open  	;
 80              	934             	935             	465         	686         	0.01        	0           	Open  	;
 81              	801             	207             	184         	226         	0.01        	0           	Open  	;
 82              	701             	938             	40          	452         	0.01        	0           	Open  	;
 83              	275             	276             	180         	144         	0.01        	0           	Open  	;
 84              	916             	289             	72          	285         	0.01        	0           	Open  	;
 86              	925             	265             	290         	144         	0.01        	0           	Open  	;
 87              	267             	281             	18          	144         	0.01        	0           	Open  	;
 88              	938             	272             	20          	452         	0.01        	0           	Open  	;
 89              	715             	230             	5           	181         	0.01        	0           	Open  	;
 9               	0               	921             	93          	1176        	0.01        	0           	Open  	;
 90              	925             	926             	54          	285         	0.01        	0           	Open  	;
 92              	701             	273             	20          	452         	0.01        	0           	Open  	;
 93              	302             	296             	308         	144         	0.01        	0           	Open  	;
 94              	938             	270             	40          	452         	0.01        	0           	Open  	;
 95              	914             	944             	40          	181         	0.01        	0           	Open  	;
 96              	298             	297             	88          	226         	0.01        	0           	Open  	;
 97              	303             	295             	18          	144         	0.01        	0           	Open  	;
 98              	222             	224             	406         	144         	0.01        	0           	Open  	;
 99              	222             	221             	150         	144         	0.01        	0           	Open  	;
 55              	911             	913             	40          	362         	0.01        	0           	Open  	;
 101             	913             	304             	250         	144         	0.01        	0           	Open  	;
 108             	913             	908             	248         	362         	0.01        	0           	Open  	;
 109             	207             	943             	185         	226         	0.01        	0           	Open  	;
 49              	2592            	259             	100         	362         	0.01        	0           	Open  	;
 85              	243             	238             	413         	452         	0.01        	0           	Open  	;
 91              	240             	2422            	17          	285         	0.01        	0           	Open  	;
 110             	942             	245             	528         	144         	0.01        	0           	Open  	;
 111             	942             	252             	102         	144         	0.01        	0           	Open  	;
 17              	943             	206             	186         	181         	0.01        	0           	Open  	;
 18              	944             	215             	400         	144         	0.01        	0           	Open  	;
 39              	945             	278             	30          	144         	0.01        	0           	Open  	;
 75              	946             	262             	43          	144         	0.01        	0           	Open  	;
 114             	241             	239             	360         	181         	0.01        	0           	Open  	;

[COORDINATES]
;Node            	X-Coord         	Y-Coord
 0	695203.30 4655816.25
 700	697191.12 4655154.85
 701	697435.21	4655355.73
 702	695226.04	4655528.07
 715	695701.34	4654802.98
 716	695235.66	4654815.71
 717	696327.76	4655586.78
 800	694949.36	4658475.41
 801	695524.26	4658099.90
 807	695054.63	4657327.64
 851	697593.73	4655547.05
 904	695626.83	4658121.43
 907	696228.19	4657315.03
 908	695955.57	4657319.07
 911	695673.31	4657322.40
 912	695672.12	4657309.61
 913	695708.50	4657318.14
 914	695088.14	4657325.97
 915	695665.68	4656440.96
 916	695670.25	4656412.25
 919	695725.57	4655897.32
 921	695221.95	4655820.63
 923	695834.15	4655348.24
 925	696651.46	4655863.47
 926	696766.84	4655961.86
 927	697021.70	4656175.28
 928	695726.25	4654792.35
 929	695723.87	4654786.79
 930	695527.38	4654346.53
 931	695642.18	4654089.21
 933	695873.09	4654144.07
 934	696527.00	4654584.59
 935	696755.95	4654821.32
 938	697484.60	4655395.89
 939	695326.73	4654090.94
 940	695041.56	4653528.46
 941	695025.21	4653514.36
 942	694596.84	4652279.76
 943	695099.49	4657997.55
 944	695043.50	4657258.75
 945	697378.50	4656302.14
 946	696634.60	4654364.56
 200	695969.79	4658027.97
 201	695015.09	4658711.47
 202	694885.17	4658307.06
 203	695190.80	4658487.13
 204	695568.50	4658152.14
 206	695104.87	4657810.04
 207	695401.36	4658047.89
 208	695526.09	4658077.61
 209	695687.68	4657663.23
 210	695677.48	4657409.10
 211	695148.18	4657324.05
 212	695055.11	4657338.81
 213	694828.50	4657324.16
 214	695008.50	4657282.14
 215	694875.07	4656933.76
 216	695115.72	4657325.70
 217	695664.78	4657211.66
 218	695659.32	4656909.02
 219	695661.70	4656560.70
 220	695275.12	4656445.55
 221	695071.23	4656501.05
 222	695126.88	4656484.92
 223	695676.65	4656133.24
 224	695063.46	4656234.98
 225	695127.62	4655478.76
 226	695723.50	4655897.14
 227	695234.60	4655502.24
 228	695240.24	4655465.19
 230	695697.98	4654778.64
 231	695257.17	4654791.37
 232	695214.16	4654837.83
 233	695235.50	4654551.14
 234	695183.11	4654199.19
 235	695005.50	4654407.14
 2352	694545.62	4654018.96
 236	694538.50	4654012.14
 238	694824.00	4653320.11
 239	693878.19	4653363.66
 240	694061.89	4653218.62
 241	693706.75	4653523.81
 242	694346.16	4652779.39
 2422	694096.70	4653249.56
 243	694487.16	4652951.60
 244	694901.31	4652738.12
 245	694280.08	4652104.44
 246	695075.69	4652907.90
 247	695056.85	4653224.52
 248	695065.06	4653062.17
 249	695762.39	4653470.51
 250	695522.19	4653667.24
 251	695427.83	4653891.41
 252	694627.21	4652205.53
 253	695789.34	4653472.52
 254	696115.13	4653607.62
 255	696157.97	4653714.18
 256	696119.89	4654325.04
 257	696632.48	4654350.85
 258	695796.61	4654776.74
 2592	696449.20	4655149.71
 259	696514.17	4655207.63
 260	696436.93	4655188.45
 261	695801.42	4654794.07
 262	696645.64	4654358.32
 263	697460.41	4654927.10
 264	697302.07	4655233.67
 265	696845.83	4655656.02
 266	695896.65	4655364.81
 267	696021.65	4655399.04
 268	696243.44	4655514.14
 269	696458.26	4655696.88
 270	697534.59	4655366.54
 271	697464.41	4655276.90
 272	697448.35	4655505.75
 273	697398.71	4655467.61
 274	697083.09	4655498.12
 275	697625.00	4655610.00
 276	697556.38	4655742.23
 277	697393.32	4656264.64
 278	697404.47	4656297.10
 279	696936.64	4656102.29
 280	697266.77	4656469.53
 281	696019.07	4655427.62
 282	696322.99	4655623.91
 283	693698.52	4653488.88
 284	697002.52	4656204.05
 285	697261.52	4656464.96
 286	697185.67	4656950.59
 287	696806.37	4656817.68
 288	695770.10	4655944.40
 289	695711.52	4656422.72
 290	696164.30	4656570.76
 291	696158.33	4656608.01
 292	696226.49	4657157.62
 293	696804.34	4656838.42
 294	696544.48	4657382.88
 295	695980.92	4656887.81
 296	697004.37	4657864.55
 297	696544.85	4657395.00
 298	696434.41	4657313.74
 299	696222.68	4657209.96
 300	695690.49	4657798.22
 301	696321.66	4657896.07
 302	696713.71	4657908.50
 303	695954.67	4656932.14
 304	695715.28	4657542.71

[OPTIONS]
 Units              	LPS
 Headloss           	D-W
 Specific Gravity   	1