[TITLE]
E:\Nery\Proyectos\Innova 2012-2013\Ejecución\Interfaces_Nacho\CINTEGRAL\proyectos\Collarada2_1\Collarada2_1\Collarada2_1

[JUNCTIONS]
;ID              	Elev        	Demand      	Pattern         
 3661            	378.14      	0           	                	;
 482             	346         	0           	                	;
 661             	330         	0           	                	;
 6610            	360         	0           	                	;
 6611            	335         	0           	                	;
 6612            	362.37      	0           	                	;
 6613            	355         	0           	                	;
 6615            	339         	0           	                	;
 6616            	361         	0           	                	;
 6617            	343         	0           	                	;
 6618            	348         	0           	                	;
 662             	328         	0           	                	;
 6620            	308         	0           	                	;
 6621            	328         	0           	                	;
 6622            	337         	0           	                	;
 6623            	351         	0           	                	;
 6624            	352         	0           	                	;
 6625            	312         	0           	                	;
 6626            	321         	0           	                	;
 6627            	321         	0           	                	;
 6628            	339         	0           	                	;
 6629            	340         	0           	                	;
 663             	341         	0           	                	;
 6630            	339.80      	0           	                	;
 6632            	340         	0           	                	;
 6633            	362.64      	0           	                	;
 6634            	371.00      	0           	                	;
 6635            	352         	0           	                	;
 6636            	356         	0           	                	;
 6637            	367         	0           	                	;
 6639            	360         	0           	                	;
 664             	348         	0           	                	;
 6640            	360         	0           	                	;
 6641            	358.68      	0           	                	;
 6642            	356         	0           	                	;
 6643            	352         	0           	                	;
 6644            	352         	0           	                	;
 6645            	350         	0           	                	;
 6646            	347.02      	0           	                	;
 6648            	346.01      	0           	                	;
 6649            	339         	0           	                	;
 665             	345         	0           	                	;
 666             	340         	0           	                	;
 6665            	365.14      	0           	                	;
 6666            	367.66      	0           	                	;
 667             	352         	0           	                	;
 668             	330         	0           	                	;
 669             	345         	0           	                	;
 1               	330         	22          	                	;
 10              	352         	22          	                	;
 100             	355         	72          	                	;
 100B            	358         	60          	                	;
 101             	353         	52          	                	;
 103             	339         	18          	                	;
 104             	339         	52          	                	;
 105             	355         	18          	                	;
 106             	355         	18          	                	;
 107             	339         	25          	                	;
 108             	338.56      	18          	                	;
 109             	337         	18          	                	;
 11B             	343         	83          	                	;
 110             	346         	18          	                	;
 111             	338.78      	18          	                	;
 112             	342         	22          	                	;
 113             	323         	18          	                	;
 114             	348         	18          	                	;
 115             	346         	18          	                	;
 116             	345         	18          	                	;
 117             	343         	52          	                	;
 118             	339         	22          	                	;
 119             	322.81      	18          	                	;
 12              	330.34      	52          	                	;
 121             	348.80      	18          	                	;
 122             	347.90      	18          	                	;
 123             	346         	18          	                	;
 125             	351         	18          	                	;
 126             	348         	18          	                	;
 127             	343.33      	38          	                	;
 128             	362         	18          	                	;
 129             	356         	18          	                	;
 130             	341.08      	45          	                	;
 130B            	353         	18          	                	;
 132             	333         	18          	                	;
 134             	321         	18          	                	;
 135             	316         	18          	                	;
 137             	309         	18          	                	;
 139             	360         	18          	                	;
 14              	338         	38          	                	;
 140             	351         	18          	                	;
 141             	352         	18          	                	;
 142             	361         	18          	                	;
 143             	340.97      	18          	                	;
 144             	359         	26          	                	;
 146             	346         	18          	                	;
 147             	321         	18          	                	;
 148             	333         	18          	                	;
 149             	313.21      	18          	                	;
 15              	335         	52          	                	;
 150             	308.07      	30          	                	;
 151             	305.24      	26          	                	;
 152             	310.02      	22          	                	;
 153             	310         	18          	                	;
 154             	325         	18          	                	;
 157             	303         	18          	                	;
 158A            	321         	22          	                	;
 158B            	321         	18          	                	;
 16B             	334         	52          	                	;
 160             	367         	18          	                	;
 162             	368         	18          	                	;
 163             	374         	30          	                	;
 164             	359.66      	18          	                	;
 165             	361.30      	18          	                	;
 166             	361.01      	32          	                	;
 167             	370.64      	54          	                	;
 169             	366.50      	26          	                	;
 17A             	335         	48          	                	;
 170             	359         	30          	                	;
 17B             	335         	42          	                	;
 171             	352         	22          	                	;
 172             	340         	40          	                	;
 18B             	325         	52          	                	;
 19              	358         	18          	                	;
 2               	326         	22          	                	;
 20              	364         	24          	                	;
 2002            	350         	18          	                	;
 2003            	350         	52          	                	;
 21              	361.60      	18          	                	;
 22              	361.60      	18          	                	;
 222             	350         	26          	                	;
 24              	344         	18          	                	;
 25              	345         	18          	                	;
 26              	348         	22          	                	;
 27              	350         	18          	                	;
 28              	350         	18          	                	;
 29              	356         	18          	                	;
 3               	340.35      	18          	                	;
 30              	361         	18          	                	;
 3002            	386         	18          	                	;
 3004            	386         	18          	                	;
 3005            	386         	39          	                	;
 3008            	385         	22          	                	;
 3012            	370.73      	22          	                	;
 3013            	364.93      	26          	                	;
 3016            	365         	22          	                	;
 3017            	382         	30          	                	;
 3018            	377         	22          	                	;
 3019            	369.39      	18          	                	;
 3020            	368.11      	18          	                	;
 3024            	364.94      	68          	                	;
 31              	357.79      	18          	                	;
 3152            	366.20      	45          	                	;
 32              	358         	18          	                	;
 34              	351.02      	22          	                	;
 35              	337         	18          	                	;
 36              	328         	26          	                	;
 39              	313         	38          	                	;
 41              	307         	18          	                	;
 46              	376         	53          	                	;
 47              	358.18      	18          	                	;
 48              	344         	38          	                	;
 49              	352         	22          	                	;
 5               	347         	18          	                	;
 52              	351         	38          	                	;
 53              	356         	42          	                	;
 54              	345         	22          	                	;
 55              	330         	18          	                	;
 56              	334         	18          	                	;
 58              	333         	38          	                	;
 59              	329         	38          	                	;
 6               	352         	18          	                	;
 60              	345         	18          	                	;
 61              	339         	24          	                	;
 62              	354         	34          	                	;
 64              	331         	18          	                	;
 65              	340         	30          	                	;
 66              	339         	26          	                	;
 67              	332         	22          	                	;
 68              	339         	18          	                	;
 69              	351         	26          	                	;
 7               	353         	18          	                	;
 70              	340         	52          	                	;
 71              	337         	38          	                	;
 72              	356         	38          	                	;
 73              	355         	68          	                	;
 77              	356         	30          	                	;
 78              	340.14      	26          	                	;
 79              	353         	18          	                	;
 8               	350         	18          	                	;
 80              	349         	30          	                	;
 81              	359         	22          	                	;
 82              	358         	39          	                	;
 85              	339         	18          	                	;
 86              	337         	18          	                	;
 87              	360         	38          	                	;
 88              	353         	18          	                	;
 89              	367         	30          	                	;
 90              	356         	18          	                	;
 91              	372         	60          	                	;
 92              	360         	40          	                	;
 91B             	360         	46          	                	;
 94              	339         	25          	                	;
 95              	343         	30          	                	;
 97              	331         	45          	                	;
 99              	350         	45          	                	;
 74              	358.71      	28          	                	;
 1074            	358         	0           	                	;				
 11A             	343         	42          	                	;				
 1011            	343         	0           	                	;		
 4               	312          	0           	                	;
 9               	310           0           	                	;

[RESERVOIRS]
;ID              	Head        	Pattern         
 0               	429         	                	;
 balsa           	424.859016309888	                	;

[TANKS]
;ID              	Elevation   	InitLevel   	MinLevel    	MaxLevel    	Diameter    	MinVol      	VolCurve        	Overflow

[PIPES]
;ID              	Node1           	Node2           	Length      	Diameter    	Roughness   	MinorLoss   	Status
 TU1             	6610            	92              	23          	180         	0.01        	0           	Open  	;
 TU10            	6613            	105             	6           	181         	0.01        	0           	Open  	;
 TU100           	66              	67              	196         	400         	0.01        	0           	Open  	;
 TU101           	6632            	66              	14          	500         	0.01        	0           	Open  	;
 TU102           	6632            	65              	27          	141         	0.01        	0           	Open  	;
 TU103           	64              	6632            	370         	500         	0.01        	0           	Open  	;
 TU104           	662             	64              	264         	500         	0.01        	0           	Open  	;
 TU105           	5               	663             	275         	900         	0.01        	0           	Open  	;
 TU106           	3               	5               	303         	900         	0.01        	0           	Open  	;
 TU107           	2003            	2002            	247         	141         	0.01        	0           	Open  	;
 TU108           	662             	3               	417         	900         	0.01        	0           	Open  	;
 TU109           	2               	662             	87          	900         	0.01        	0           	Open  	;
 TU11            	14              	6613            	729         	278         	0.01        	0           	Open  	;
 TU110           	1               	2               	318         	900         	0.01        	0           	Open  	;
 TU111           	58              	59              	176         	164         	0.01        	0           	Open  	;
 TU112           	56              	58              	310         	220         	0.01        	0           	Open  	;
 TU113           	55              	56              	77          	258         	0.01        	0           	Open  	;
 TU114           	1               	55              	158         	258         	0.01        	0           	Open  	;
 TU115           	54              	1               	389         	1000        	0.01        	0           	Open  	;
 TU116           	6633            	54              	217         	1000        	0.01        	0           	Open  	;
 TU117           	6634            	53              	306         	181         	0.01        	0           	Open  	;
 TU118           	6633            	19              	148         	145         	0.01        	0           	Open  	;
 TU119           	6634            	6633            	123         	1000        	0.01        	0           	Open  	;
 TU12            	103             	104             	12          	176         	0.01        	0           	Open  	;
 TU120           	3017            	6634            	243         	1000        	0.01        	0           	Open  	;
 TU121           	6635            	172             	853         	176         	0.01        	0           	Open  	;
 TU122           	6635            	171             	69          	145         	0.01        	0           	Open  	;
 TU123           	6636            	6635            	179         	226         	0.01        	0           	Open  	;
 TU124           	49              	52              	8           	176         	0.01        	0           	Open  	;
 TU125           	48              	49              	590         	220         	0.01        	0           	Open  	;
 TU126           	482             	48              	242         	278         	0.01        	0           	Open  	;
 TU127           	6637            	482             	574         	278         	0.01        	0           	Open  	;
 TU128           	6665            	167             	298         	285         	0.01        	0           	Open  	;
 TU129           	165             	6665            	246         	285         	0.01        	0           	Open  	;
 TU13            	14              	103             	469         	220         	0.01        	0           	Open  	;
 TU130           	166             	165             	5           	285         	0.01        	0           	Open  	;
 TU131           	47              	166             	296         	285         	0.01        	0           	Open  	;
 TU132           	47              	169             	421         	285         	0.01        	0           	Open  	;
 TU133           	164             	47              	48          	285         	0.01        	0           	Open  	;
 TU134           	6610            	91B             	22          	181         	0.01        	0           	Open  	;
 TU135           	160             	162             	172         	400         	0.01        	0           	Open  	;
 TU136           	6637            	160             	32          	400         	0.01        	0           	Open  	;
 TU137           	170             	6637            	176         	500         	0.01        	0           	Open  	;
 TU138           	6636            	170             	146         	500         	0.01        	0           	Open  	;
 TU139           	46              	6636            	366         	600         	0.01        	0           	Open  	;
 TU14            	16B             	14              	88          	400         	0.01        	0           	Open  	;
 TU140           	3017            	46              	680         	600         	0.01        	0           	Open  	;
 TU141           	72              	62              	240         	145         	0.01        	0           	Open  	;
 TU142           	667             	72              	389         	362         	0.01        	0           	Open  	;
 TU143           	6639            	91              	248         	285         	0.01        	0           	Open  	;
 TU144           	6640            	100B            	130         	181         	0.01        	0           	Open  	;
 TU145           	6640            	6610            	136         	226         	0.01        	0           	Open  	;
 TU146           	6639            	6640            	103         	285         	0.01        	0           	Open  	;
 TU147           	6641            	6639            	251         	362         	0.01        	0           	Open  	;
 TU148           	6642            	90              	18          	145         	0.01        	0           	Open  	;
 TU149           	6642            	100             	13          	226         	0.01        	0           	Open  	;
 TU15            	20              	3152            	460         	600         	0.01        	0           	Open  	;
 TU150           	6641            	6642            	26          	226         	0.01        	0           	Open  	;
 TU151           	89              	6641            	293         	500         	0.01        	0           	Open  	;
 TU152           	89              	99              	219         	176         	0.01        	0           	Open  	;
 TU15301         	73              	1074            	30          	500         	0.01        	0           	Open  	;
 TU15302         	1074            	87              	312         	500         	0.01        	0           	Open  	;
 TU1074          	1074            	74              	415         	164         	0.01        	0           	Open  	;
 TU154           	6643            	73              	69          	600         	0.01        	0           	Open  	;
 TU155           	6643            	10              	53          	145         	0.01        	0           	Open  	;
 TU156           	667             	6643            	280         	600         	0.01        	0           	Open  	;
 TU157           	6644            	667             	24          	600         	0.01        	0           	Open  	;
 TU158           	6644            	6               	30          	141         	0.01        	0           	Open  	;
 TU159           	6645            	6644            	88          	600         	0.01        	0           	Open  	;
 TU16            	0               	3017            	1131        	1400        	0.01        	0           	Open  	;
 TU160           	6645            	8               	29          	141         	0.01        	0           	Open  	;
 TU161           	663             	6645            	537         	600         	0.01        	0           	Open  	;
 TU162           	663             	7               	357         	700         	0.01        	0           	Open  	;
 TU163           	79              	664             	284         	700         	0.01        	0           	Open  	;
 TU164           	7               	79              	6           	700         	0.01        	0           	Open  	;
 TU166           	6648            	81              	132         	131         	0.01        	0           	Open  	;
 TU167           	6646            	82              	56          	164         	0.01        	0           	Open  	;
 TU168           	6648            	6646            	20          	164         	0.01        	0           	Open  	;
 TU169           	80              	6648            	347         	205         	0.01        	0           	Open  	;
 TU17            	109             	108             	97          	141         	0.01        	0           	Open  	;
 TU170           	664             	80              	47          	278         	0.01        	0           	Open  	;
 TU171           	664             	665             	476         	700         	0.01        	0           	Open  	;
 TU17201         	95              	1011            	30          	164         	0.01        	0           	Open  	;
 TU17202         	1011            	97              	402         	164         	0.01        	0           	Open  	;
 TU1011A         	1011            	11A             	14          	164         	0.01        	0           	Open  	;
 TU173           	6649            	95              	187         	220         	0.01        	0           	Open  	;
 TU174           	6649            	94              	56          	141         	0.01        	0           	Open  	;
 TU175           	665             	6649            	261         	278         	0.01        	0           	Open  	;
 TU176           	11B             	12              	773         	600         	0.01        	0           	Open  	;
 TU177           	665             	11B             	154         	600         	0.01        	0           	Open  	;
 TU178           	12              	16B             	1021        	600         	0.01        	0           	Open  	;
 TU179           	16B             	6611            	312         	353         	0.01        	0           	Open  	;
 TU18            	6615            	109             	83          	176         	0.01        	0           	Open  	;
 TU180           	6611            	17A             	217         	353         	0.01        	0           	Open  	;
 TU181           	17B             	18B             	470         	205         	0.01        	0           	Open  	;
 TU182           	17A             	17B             	68          	278         	0.01        	0           	Open  	;
 TU183           	3               	60              	582         	176         	0.01        	0           	Open  	;
 TU184           	72              	78              	115         	141         	0.01        	0           	Open  	;
 TU185           	113             	121             	337         	400         	0.01        	0           	Open  	;
 TU186           	6666            	164             	262         	362         	0.01        	0           	Open  	;
 TU187           	162             	6666            	182         	400         	0.01        	0           	Open  	;
 TU188           	24              	25              	200         	700         	0.01        	0           	Open  	;
 TU189           	25              	27              	200         	700         	0.01        	0           	Open  	;
 TU19            	6615            	107             	27          	141         	0.01        	0           	Open  	;
 TU190           	151             	153             	295         	164         	0.01        	0           	Open  	;
 TU191           	60              	61              	95          	141         	0.01        	0           	Open  	;
 TU192           	3152            	3024            	51          	600         	0.01        	0           	Open  	;
 TU193           	3024            	3013            	14          	500         	0.01        	0           	Open  	;
 TU194           	3013            	3012            	392         	500         	0.01        	0           	Open  	;
 TU195           	3012            	3661            	120         	500         	0.01        	0           	Open  	;
 TU196           	3661            	3019            	87          	181         	0.01        	0           	Open  	;
 TU197           	3019            	3020            	115         	145         	0.01        	0           	Open  	;
 TU198           	3661            	3008            	190         	400         	0.01        	0           	Open  	;
 TU199           	3008            	3005            	207         	400         	0.01        	0           	Open  	;
 TU2             	6611            	15              	25          	176         	0.01        	0           	Open  	;
 TU20            	24              	6615            	218         	220         	0.01        	0           	Open  	;
 TU200           	3005            	3004            	652         	285         	0.01        	0           	Open  	;
 TU201           	3004            	3002            	44          	285         	0.01        	0           	Open  	;
 TU203           	46              	3018            	30          	145         	0.01        	0           	Open  	;
 TU204           	3016            	20              	234         	900         	0.01        	0           	Open  	;
 TU205           	3017            	3016            	727         	900         	0.01        	0           	Open  	;
 TU21            	150             	151             	171         	205         	0.01        	0           	Open  	;
 TU22            	222             	24              	238         	800         	0.01        	0           	Open  	;
 TU23            	22              	222             	385         	800         	0.01        	0           	Open  	;
 TU24            	21              	22              	16          	800         	0.01        	0           	Open  	;
 TU25            	balsa           	21              	0.3         	800         	0.01        	0           	Open  	;
 TU26            	30              	6616            	23          	600         	0.01        	0           	Open  	;
 TU27            	29              	30              	72          	600         	0.01        	0           	Open  	;
 TU28            	28              	29              	558         	600         	0.01        	0           	Open  	;
 TU29            	27              	28              	200         	600         	0.01        	0           	Open  	;
 TU3             	6612            	88              	782         	145         	0.01        	0           	Open  	;
 TU30            	118             	119             	577         	131         	0.01        	0           	Open  	;
 TU31            	6617            	118             	279         	176         	0.01        	0           	Open  	;
 TU32            	6617            	117             	26          	176         	0.01        	0           	Open  	;
 TU33            	115             	6617            	301         	278         	0.01        	0           	Open  	;
 TU34            	116             	115             	156         	278         	0.01        	0           	Open  	;
 TU35            	123             	122             	389         	141         	0.01        	0           	Open  	;
 TU36            	116             	123             	187         	176         	0.01        	0           	Open  	;
 TU37            	114             	116             	278         	353         	0.01        	0           	Open  	;