[TITLE]
C:\Mario\Violada

[JUNCTIONS]
;ID              	Elev        	Demand      	Pattern         
 700             	376         	0           	                	;
 701             	384         	0           	                	;
 702             	378         	0           	                	;
 715             	367         	0           	                	;
 716             	376         	0           	                	;
 717             	372         	0           	                	;
 800             	380         	0           	                	;
 801             	375         	0           	                	;
 807             	377         	0           	                	;
 851             	385         	0           	                	;
 904             	375         	0           	                	;
 907             	375         	0           	                	;
 908             	375         	0           	                	;
 911             	375         	0           	                	;
 912             	375         	0           	                	;
 913             	375         	0           	                	;
 914             	380         	0           	                	;
 915             	375         	0           	                	;
 916             	375         	0           	                	;
 919             	375         	0           	                	;
 921             	375         	0           	                	;
 923             	370         	0           	                	;
 925             	375         	0           	                	;
 926             	375         	0           	                	;
 927             	380         	0           	                	;
 928             	365         	0           	                	;
 929             	365         	0           	                	;
 930             	365         	0           	                	;
 931             	365         	0           	                	;
 933             	365         	0           	                	;
 934             	370         	0           	                	;
 935             	375         	0           	                	;
 938             	380         	0           	                	;
 939             	365         	0           	                	;
 940             	360         	0           	                	;
 941             	360         	0           	                	;
 942             	352         	0           	                	; 
 943             	375         	0           	                	;
 944             	384         	0           	                	;
 945             	380         	0           	                	;
 946             	373         	0           	                	;
 200             	375.98      	21.5        	                	;
 201             	376.02      	21.6        	                	;
 202             	381.49      	24          	                	;
 203             	375.37      	18          	                	;
 204             	374.14      	18          	                	;
 206             	376.07      	32          	                	;
 207             	374.70      	18          	                	;
 208             	374.13      	18          	                	;
 209             	373.71      	18          	                	;
 210             	372.79      	18          	                	;
 211             	374.20      	18          	                	;
 212             	376.27      	18          	                	;
 213             	382.90      	18          	                	;
 214             	384.02      	18          	                	;
 215             	384.73      	18          	                	;
 216             	374.16      	18          	                	;
 217             	372.72      	18          	                	;
 218             	372.42      	28          	                	;
 219             	372.24      	26          	                	;
 220             	377.28      	30          	                	;
 221             	381.51      	23.2        	                	;
 222             	377.93      	17.5        	                	;
 223             	371.36      	22          	                	;
 224             	384.12      	31.2        	                	;
 225             	383.79      	18          	                	;
 226             	371.48      	21.1        	                	;
 227             	377.60      	38.3        	                	;
 228             	377.87      	71.2        	                	;
 230             	366.41      	29          	                	;
 231             	374.42      	20          	                	;
 232             	374.44      	24          	                	;
 233             	381.50      	50          	                	;
 234             	363.93      	18.6        	                	;
 235             	371.16      	60          	                	;
 2352            	382.12      	93.2        	                	;
 236             	383.13      	100         	                	;
 238             	360.42      	18          	                	;
 239             	367.47      	20          	                	; 
 240             	364.38      	39          	                	;
 241             	373.24      	28          	                	;
 242             	356.95      	86          	                	;
 2422            	364.64      	35          	                	;
 243             	358.34      	19.8        	                	;
 244             	354.27      	22          	                	;
 245             	350.12      	18          	                	;
 246             	355.09      	18          	                	;
 247             	360.27      	33          	                	;
 248             	359.04      	29          	                	;
 249             	360.21      	26          	                	;
 250             	363.89      	25          	                	;
 251             	362.85      	39          	                	;
 252             	354.67      	20          	                	; 
 253             	360.90      	18          	                	;
 254             	371.12      	20          	                	;
 255             	372.57      	40          	                	;
 256             	366.21      	34.5        	                	;
 257             	371.70      	41.8        	                	;
 258             	367.07      	31.67       	                	;
 2592            	373.52      	30          	                	;
 259             	373.35      	32          	                	; 
 260             	371.46      	18          	                	;
 261             	367.23      	18          	                	;
 262             	374.22      	26.3        	                	;
 263             	375.93      	70          	                	;
 264             	374.75      	48.7        	                	;
 265             	374.95      	21.1        	                	;
 266             	369.04      	23.12       	                	;
 267             	369.16      	18          	                	;
 268             	370.44      	22.9        	                	;
 269             	373.32      	28          	                	;
 270             	385.21      	30.8        	                	;
 271             	382.06      	18          	                	;
 272             	382.73      	18          	                	;
 273             	382.16      	26          	                	;
 274             	374.37      	21          	                	;
 275             	383.45      	18          	                	;
 276             	382.09      	20          	                	;
 277             	380.26      	26          	                	;
 278             	379.53      	28          	                	;
 279             	377.46      	18          	                	;
 280             	381.01      	32          	                	;
 281             	369.27      	22          	                	;
 282             	371.11      	28.4        	                	;
 283             	375.27      	86          	                	;
 284             	378.11      	21          	                	;
 285             	380.83      	19.3        	                	;
 286             	381.83      	18          	                	;
 287             	379.91      	33.3        	                	;
 288             	371.60      	86.4        	                	;
 289             	372.11      	18          	                	;
 290             	373.88      	39.1        	                	;
 291             	373.70      	23          	                	;
 292             	375.79      	23          	                	;
 293             	379.95      	26.8        	                	;
 294             	379.11      	43          	                	;
 295             	372.78      	23          	                	;
 296             	381.16      	26          	                	;
 297             	379.05      	30.8        	                	;
 298             	377.84      	19.3        	                	;
 299             	375.75      	24          	                	;
 300             	374.20      	27          	                	;
 301             	381.96      	24          	                	;
 302             	382.66      	18          	                	;
 303             	373.06      	28          	                	;
 304             	373.89      	20          	                	;

[RESERVOIRS]
;ID              	Head        	Pattern         
 0               	385       	                	;

[PIPES]
;ID              	Node1           	Node2           	Length      	Diameter    	Roughness   	MinorLoss   	Status
 1               	220             	222             	70          	226         	0.01        	0           	Open  	;
 10              	243             	2422            	502         	362         	0.01        	0           	Open  	;
 100             	203             	800             	310         	226         	0.01        	0           	Open  	;
 102             	300             	200             	369         	285         	0.01        	0           	Open  	;
 103             	200             	301             	477         	226         	0.01        	0           	Open  	;
 104             	907             	298             	235         	285         	0.01        	0           	Open  	;
 105             	907             	299             	92          	226         	0.01        	0           	Open  	;
 106             	290             	287             	605         	226         	0.01        	0           	Open  	;
 107             	911             	210             	55          	452         	0.01        	0           	Open  	;
 11              	2422            	239             	146         	226         	0.01        	0           	Open  	;
 112             	219             	218             	218         	588         	0.01        	0           	Open  	;
 113             	915             	220             	464         	285         	0.01        	0           	Open  	;
 117             	223             	916             	207         	686         	0.01        	0           	Open  	;
 118             	915             	219             	259         	588         	0.01        	0           	Open  	;
 119             	916             	915             	18          	588         	0.01        	0           	Open  	;
 12              	239             	283             	339         	226         	0.01        	0           	Open  	;
 120             	912             	211             	449         	285         	0.01        	0           	Open  	;
 122             	914             	807             	45          	181         	0.01        	0           	Open  	;
 123             	904             	204             	24          	285         	0.01        	0           	Open  	;
 126             	216             	914             	107         	226         	0.01        	0           	Open  	;
 127             	211             	216             	42          	226         	0.01        	0           	Open  	;
 128             	218             	217             	306         	505         	0.01        	0           	Open  	;
 131             	912             	911             	5           	452         	0.01        	0           	Open  	;
 132             	217             	912             	80          	505         	0.01        	0           	Open  	;
 134             	290             	291             	30          	144         	0.01        	0           	Open  	;
 136             	908             	907             	265         	362         	0.01        	0           	Open  	;
 137             	299             	292             	20          	144         	0.01        	0           	Open  	;
 138             	908             	303             	184         	226         	0.01        	0           	Open  	;
 139             	716             	232             	10          	181         	0.01        	0           	Open  	;
 14              	940             	247             	294         	285         	0.01        	0           	Open  	;
 142             	294             	297             	12          	144         	0.01        	0           	Open  	;
 143             	716             	231             	12          	181         	0.01        	0           	Open  	;
 144             	301             	302             	265         	181         	0.01        	0           	Open  	;
 145             	300             	904             	266         	362         	0.01        	0           	Open  	;
 148             	209             	300             	148         	452         	0.01        	0           	Open  	;
 149             	210             	209             	325         	452         	0.01        	0           	Open  	;
 15              	243             	242             	383         	285         	0.01        	0           	Open  	;
 150             	204             	203             	593         	285         	0.01        	0           	Open  	;
 151             	203             	201             	215         	144         	0.01        	0           	Open  	;
 156             	944             	214             	25          	144         	0.01        	0           	Open  	;
 16              	247             	248             	60          	226         	0.01        	0           	Open  	;
 160             	279             	927             	185         	285         	0.01        	0           	Open  	;
 162             	927             	284             	33          	285         	0.01        	0           	Open  	;
 171             	280             	945             	216         	181         	0.01        	0           	Open  	;
 172             	285             	280             	16          	285         	0.01        	0           	Open  	;
 175             	807             	213             	232         	144         	0.01        	0           	Open  	;
 181             	227             	228             	10          	226         	0.01        	0           	Open  	;
 183             	807             	212             	12          	181         	0.01        	0           	Open  	;
 184             	801             	208             	10          	285         	0.01        	0           	Open  	;
 185             	904             	801             	184         	285         	0.01        	0           	Open  	;
 19              	716             	233             	131         	181         	0.01        	0           	Open  	;
 2               	919             	223             	281         	686         	0.01        	0           	Open  	;
 20              	234             	235             	503         	226         	0.01        	0           	Open  	;
 21              	250             	249             	276         	181         	0.01        	0           	Open  	;
 22              	930             	939             	315         	588         	0.01        	0           	Open  	;
 23              	248             	246             	292         	181         	0.01        	0           	Open  	;
 24              	931             	251             	445         	285         	0.01        	0           	Open  	;
 25              	251             	250             	243         	285         	0.01        	0           	Open  	;
 26              	940             	941             	34          	505         	0.01        	0           	Open  	;
 27              	249             	253             	15          	181         	0.01        	0           	Open  	;
 28              	268             	717             	165         	362         	0.01        	0           	Open  	;
 29              	256             	934             	500         	686         	0.01        	0           	Open  	;
 3               	926             	279             	251         	285         	0.01        	0           	Open  	;
 30              	929             	715             	10          	285         	0.01        	0           	Open  	;
 31              	923             	928             	594         	883         	0.01        	0           	Open  	;
 32              	939             	940             	675         	505         	0.01        	0           	Open  	;
 33              	931             	933             	145         	686         	0.01        	0           	Open  	;
 34              	929             	930             	483         	783         	0.01        	0           	Open  	;
 35              	241             	283             	21          	226         	0.01        	0           	Open  	;
 36              	289             	290             	447         	285         	0.01        	0           	Open  	;
 37              	236             	2352            	15          	226         	0.01        	0           	Open  	;
 38              	938             	851             	287         	452         	0.01        	0           	Open  	;
 4               	941             	238             	341         	452         	0.01        	0           	Open  	;
 40              	851             	275             	190         	181         	0.01        	0           	Open  	;
 41              	933             	256             	346         	686         	0.01        	0           	Open  	;
 42              	255             	254             	50          	144         	0.01        	0           	Open  	;
 43              	930             	931             	273         	686         	0.01        	0           	Open  	;
 44              	934             	946             	163         	226         	0.01        	0           	Open  	;
 45              	946             	257             	43          	181         	0.01        	0           	Open  	;
 46              	933             	255             	391         	226         	0.01        	0           	Open  	;
 47              	935             	700             	357         	588         	0.01        	0           	Open  	;
 48              	700             	264             	65          	588         	0.01        	0           	Open  	;
 5               	246             	244             	328         	144         	0.01        	0           	Open  	;
 50              	928             	258             	27          	181         	0.01        	0           	Open  	;
 51              	928             	929             	16          	783         	0.01        	0           	Open  	;
 52              	258             	261             	10          	144         	0.01        	0           	Open  	;
 53              	264             	701             	296         	505         	0.01        	0           	Open  	;
 54              	921             	226             	365         	1176        	0.01        	0           	Open  	;
 56              	715             	716             	770         	285         	0.01        	0           	Open  	;
 57              	921             	702             	266         	285         	0.01        	0           	Open  	;
 58              	702             	225             	316         	144         	0.01        	0           	Open  	;
 59              	702             	227             	241         	285         	0.01        	0           	Open  	;
 6               	941             	236             	1120        	452         	0.01        	0           	Open  	;
 60              	800             	202             	60          	226         	0.01        	0           	Open  	;
 61              	267             	268             	204         	362         	0.01        	0           	Open  	;
 62              	717             	269             	232         	362         	0.01        	0           	Open  	;
 63              	919             	923             	581         	883         	0.01        	0           	Open  	;
 64              	717             	282             	37          	144         	0.01        	0           	Open  	;
 65              	2592            	260             	30          	144         	0.01        	0           	Open  	;
 66              	923             	266             	15          	505         	0.01        	0           	Open  	;
 67              	269             	925             	193         	362         	0.01        	0           	Open  	;
 68              	945             	277             	36          	144         	0.01        	0           	Open  	;
 69              	266             	267             	163         	452         	0.01        	0           	Open  	;
 7               	939             	234             	144         	285         	0.01        	0           	Open  	;
 70              	927             	285             	360         	285         	0.01        	0           	Open  	;
 71              	287             	293             	30          	144         	0.01        	0           	Open  	;
 72              	287             	286             	470         	144         	0.01        	0           	Open  	;
 73              	919             	288             	30          	285         	0.01        	0           	Open  	;
 74              	226             	919             	8           	1176        	0.01        	0           	Open  	;
 76              	935             	259             	446         	362         	0.01        	0           	Open  	;
 77              	701             	271             	20          	452         	0.01        	0           	Open  	;
 78              	264             	263             	640         	285         	0.01        	0           	Open  	;
 79              	700             	274             	475         	144         	0.01        	0           	Open  	;
 8               	242             	942             	557         	144         	0.01        	0           	Open  	;
 80              	934             	935             	465         	686         	0.01        	0           	Open  	;
 81              	801             	207             	184         	226         	0.01        	0           	Open  	;
 82              	701             	938             	40          	452         	0.01        	0           	Open  	;
 83              	275             	276             	180         	144         	0.01        	0           	Open  	;
 84              	916             	289             	72          	285         	0.01        	0           	Open  	;
 86              	925             	265             	290         	144         	0.01        	0           	Open  	;
 87              	267             	281             	18          	144         	0.01        	0           	Open  	;
 88              	938             	272             	20          	452         	0.01        	0           	Open  	;
 89              	715             	230             	5           	181         	0.01        	0           	Open  	;
 9               	0               	921             	93          	1176        	0.01        	0           	Open  	;
 90              	925             	926             	54          	285         	0.01        	0           	Open  	;
 92              	701             	273             	20          	452         	0.01        	0           	Open  	;
 93              	302             	296             	308         	144         	0.01        	0           	Open  	;
 94              	938             	270             	40          	452         	0.01        	0           	Open  	;
 95              	914             	944             	40          	181         	0.01        	0           	Open  	;
 96              	298             	297             	88          	226         	0.01        	0           	Open  	;
 97              	303             	295             	18          	144         	0.01        	0           	Open  	;
 98              	222             	224             	406         	144         	0.01        	0           	Open  	;
 99              	222             	221             	150         	144         	0.01        	0           	Open  	;
 55              	911             	913             	40          	362         	0.01        	0           	Open  	;
 101             	913             	304             	250         	144         	0.01        	0           	Open  	;
 108             	913             	908             	248         	362         	0.01        	0           	Open  	;
 109             	207             	943             	185         	226         	0.01        	0           	Open  	;
 49              	2592            	259             	100         	362         	0.01        	0           	Open  	;
 85              	243             	238             	413         	452         	0.01        	0           	Open  	;
 91              	240             	2422            	17          	285         	0.01        	0           	Open  	;
 110             	942             	245             	528         	144         	0.01        	0           	Open  	;
 111             	942             	252             	102         	144         	0.01        	0           	Open  	;
 17              	943             	206             	186         	181         	0.01        	0           	Open  	;
 18              	944             	215             	400         	144         	0.01        	0           	Open  	;
 39              	945             	278             	30          	144         	0.01        	0           	Open  	;
 75              	946             	262             	43          	144         	0.01        	0           	Open  	;
 114             	241             	239             	360         	181         	0.01        	0           	Open  	;

[COORDINATES]
;Node            	X-Coord         	Y-Coord
 0               	1974.80         	4364.11         
 700             	3962.62         	3702.71         
 701             	4206.71         	3903.59         
 702             	1997.54         	4075.93         
 715             	2472.84         	3350.84         
 716             	2007.16         	3363.57         
 717             	3099.26         	4134.64         
 800             	1720.86         	7023.27         
 801             	2295.76         	6647.76         
 807             	1826.13         	5875.50         
 851             	4365.23         	4094.91         
 904             	2398.33         	6669.29         
 907             	2999.69         	5862.89         
 908             	2727.07         	5866.93         
 911             	2444.81         	5870.26         
 912             	2443.62         	5857.47         
 913             	2480.00         	5866.00         
 914             	1859.64         	5873.83         
 915             	2437.18         	4988.82         
 916             	2441.75         	4960.11         
 919             	2497.07         	4445.18         
 921             	1993.45         	4368.49         
 923             	2605.65         	3896.10         
 925             	3422.96         	4411.33         
 926             	3538.34         	4509.72         
 927             	3793.20         	4723.14         
 928             	2497.75         	3340.21         
 929             	2495.37         	3334.65         
 930             	2298.88         	2894.39         
 931             	2413.68         	2637.07         
 933             	2644.59         	2691.93         
 934             	3298.50         	3132.45         
 935             	3527.45         	3369.18         
 938             	4256.10         	3943.75         
 939             	2098.23         	2638.80         
 940             	1813.06         	2076.32         
 941             	1796.71         	2062.22         
 942             	1368.34         	827.62
 943             	1870.99         	6545.41         
 944             	1815.00         	5806.61         
 945             	4150.00         	4850.00         
 946             	3406.10         	2912.42   
 200             	2741.29         	6575.83         
 201             	1786.59         	7259.33         
 202             	1656.67         	6854.92         
 203             	1962.30         	7034.99         
 204             	2340.00         	6700.00         
 206             	1876.37         	6357.90         
 207             	2172.86         	6595.75         
 208             	2297.59         	6625.47         
 209             	2459.18         	6211.09         
 210             	2448.98         	5956.96         
 211             	1919.68         	5871.91         
 212             	1826.61         	5886.67         
 213             	1600.00         	5872.02         
 214             	1780.00         	5830.00         
 215             	1646.57         	5481.62         
 216             	1887.22         	5873.56         
 217             	2436.28         	5759.52         
 218             	2430.82         	5456.88         
 219             	2433.20         	5108.56         
 220             	2046.62         	4993.41         
 221             	1842.73         	5048.91         
 222             	1898.38         	5032.78         
 223             	2448.15         	4681.10         
 224             	1834.96         	4782.84         
 225             	1899.12         	4026.62         
 226             	2495.00         	4445.00         
 227             	2006.10         	4050.10         
 228             	2011.74         	4013.05         
 230             	2469.48         	3326.50         
 231             	2028.67         	3339.23         
 232             	1985.66         	3385.69         