[TITLE]
C:\Mario\Violada

[JUNCTIONS]
;ID              	Elev        	Demand      	Pattern         
 702             	378         	0           	                	;
 921             	375         	0           	                	;
 226             	371.48      	211        	                	;

[RESERVOIRS]
;ID              	Head        	Pattern         
 0               	435       	                	;

[PIPES]
;ID              	Node1           	Node2           	Length      	Diameter    	Roughness   	MinorLoss   	Status
 54              	921             	226             	365         	1176        	0.01        	0           	Open  	;
 57              	921             	702             	266         	285         	0.01        	0           	Open  	;
 9               	0               	921             	93          	1176        	0.01        	0           	Open  	;

[COORDINATES]
;Node            	X-Coord         	Y-Coord
 0               	1974.80         	4364.11         
 702             	1997.54         	4075.93         
 921             	1993.45         	4368.49         
 226             	2495.00         	4445.00         

[OPTIONS]
 Units              	LPS
 Headloss           	D-W
 Specific Gravity   	1
 Viscosity          	1
 Trials             	40
 Accuracy           	0.001
 CHECKFREQ          	2
 MAXCHECK           	10
 DAMPLIMIT          	0
 Unbalanced         	Continue 10
 Pattern            	1
 Demand Multiplier  	1.0
 Emitter Exponent   	0.5
 Quality            	None mg/L
 Diffusivity        	1
 Tolerance          	0.01

[BACKDROP]
 DIMENSIONS      	0               	0               	4707.2          	7259.33         
 UNITS           	None            
 FILE            	
 OFFSET          	0.00            	0.00            

[REPORT]
NODES 226
FLOW YES
VELOCITY PRECISION 4
F-FACTOR PRECISION 4
VELOCITY ABOVE 3.0


[END]
